* SPICE model NPN bipolar transistor ***2N5551***
* Use the symbol file ***2n5551.asy***
*
* (c) Diotec Semiconductor AG
* www.diotec.com
* 2017-12-13
*
*********************************************************
* This model is for simulation purposes only. It does   *
* not replace reviewing of the data sheet nor real life *
* testing of the part inside the application.           *
*********************************************************
*
.subckt 2N5551 C  B  E  params: Vceo=160 Vcbo=180 Vebo=6 Ic=600m hfe=250 Ices=100n Vbe=800m ft=100Meg Ccbo=6p Cebo=10p Rc=1 Rb=.1 Re=.1 Eg=1.11 Xti=3

* Above values are an example for the ***2N5551***. Using the
* above symbol file allows for direct insertion of other values
* according to these data sheet parameters:
*
* Vceo    	Collector Emitter voltage, Base open
* Vcbo		Collector Base voltage, Emitter open
* Vebo    	Emitter Base voltage, Collector open
* Ic		DC Collector current
* hfe		Max DC current gain
* Ices		Collector Emitter cut-off current
* Vbe		Min Base Emitter voltage
* ft		Gain bandwidth product
* Ccbo		Typ. Collector Base capacitance
* Cebo		Typ. Emitter Base capacitance
* Rc/Rb/Re	Fixed values
*
* Activation energy: Eg=1.11 for Si (npn) transistor
* Sat.-current temp. exp: Xti=3 for Si (npn) transistor

.SUBCKT 2n5551

Q  C B E  Transistor

.model Transistor NPN(Is={Ices/2} Bf={hfe} Bvcbo={Vcbo} Bvbe={-Vebo} Vceo={Vceo} Vje={Vbe} Tf={1/(2*pi*ft)} Eg={Eg} Xti={Xti} Icrating={Ic} Cjc={Ccbo*2} Cje={Cebo*2} Rc={Rc} Rb={Rb} Re={Re} mfg=Diotec type=npn)

.ends

.ENDS 2n5551